tests/fuzzer/corpus_json/21_random_017.json
{
  "version": "1.0",
  "type": "input",
  "is_batch": false,
  "attributes": {},
  "data": {
    "node": [
      {
        "id": 0,
        "u_rated": 110000.0
      },
      {
        "id": 1,
        "u_rated": 110000.0
      },
      {
        "id": 2,
        "u_rated": 110000.0
      },
      {
        "id": 3,
        "u_rated": 110000.0
      },
      {
        "id": 4,
        "u_rated": 110000.0
      },
      {
        "id": 5,
        "u_rated": 110000.0
      },
      {
        "id": 6,
        "u_rated": 110000.0
      },
      {
        "id": 7,
        "u_rated": 110000.0
      },
      {
        "id": 8,
        "u_rated": 110000.0
      },
      {
        "id": 9,
        "u_rated": 110000.0
      }
    ],
    "source": [
      {
        "id": 10,
        "node": 0,
        "status": 1,
        "u_ref": 1.0920989548647755,
        "u_ref_angle": 0.0,
        "sk": 806710108.0409672,
        "rx_ratio": 0.14481268888223275,
        "z01_ratio": 1.0
      }
    ],
    "line": [
      {
        "id": 11,
        "from_node": 0,
        "to_node": 1,
        "from_status": 1,
        "to_status": 1,
        "r1": 3.5210993342170633,
        "x1": 3.306915286119152,
        "c1": 1.1016204891721182e-07,
        "tan1": 0.0,
        "r0": 0.3,
        "x0": 0.3,
        "c0": 1e-09,
        "tan0": 0.0,
        "i_n": 36.667411002621535
      },
      {
        "id": 12,
        "from_node": 1,
        "to_node": 2,
        "from_status": 1,
        "to_status": 1,
        "r1": 1.9208555227214874,
        "x1": 3.7319759808319217,
        "c1": 2.5238376751322197e-07,
        "tan1": 0.0,
        "r0": 0.3,
        "x0": 0.3,
        "c0": 1e-09,
        "tan0": 0.0,
        "i_n": 506.5866438623534
      },
      {
        "id": 13,
        "from_node": 2,
        "to_node": 3,
        "from_status": 1,
        "to_status": 1,
        "r1": 1.5871754527287485,
        "x1": 4.231639045642121,
        "c1": 9.451939145048893e-07,
        "tan1": 0.0,
        "r0": 0.3,
        "x0": 0.3,
        "c0": 1e-09,
        "tan0": 0.0,
        "i_n": 407.5750275415628
      },
      {
        "id": 14,
        "from_node": 3,
        "to_node": 4,
        "from_status": 1,
        "to_status": 1,
        "r1": 4.992235025435105,
        "x1": 0.3109639562622335,
        "c1": 8.126090004416156e-07,
        "tan1": 0.0,
        "r0": 0.3,
        "x0": 0.3,
        "c0": 1e-09,
        "tan0": 0.0,
        "i_n": 876.5633371069978
      },
      {
        "id": 15,
        "from_node": 4,
        "to_node": 5,
        "from_status": 1,
        "to_status": 1,
        "r1": 0.7545774013849005,
        "x1": 3.5278430779597536,
        "c1": 5.588918686046748e-07,
        "tan1": 0.0,
        "r0": 0.3,
        "x0": 0.3,
        "c0": 1e-09,
        "tan0": 0.0,
        "i_n": 955.63598363826
      },
      {
        "id": 16,
        "from_node": 5,
        "to_node": 6,
        "from_status": 1,
        "to_status": 1,
        "r1": 1.0500500474511116,
        "x1": 2.6998167531006185,
        "c1": 8.824561068087002e-07,
        "tan1": 0.0,
        "r0": 0.3,
        "x0": 0.3,
        "c0": 1e-09,
        "tan0": 0.0,
        "i_n": 642.3854492491985
      },
      {
        "id": 17,
        "from_node": 6,
        "to_node": 7,
        "from_status": 1,
        "to_status": 1,
        "r1": 1.5459976497916261,
        "x1": 0.4093192706737131,
        "c1": 9.39776047011715e-07,
        "tan1": 0.0,
        "r0": 0.3,
        "x0": 0.3,
        "c0": 1e-09,
        "tan0": 0.0,
        "i_n": 479.3574863953413
      },
      {
        "id": 18,
        "from_node": 7,
        "to_node": 8,
        "from_status": 1,
        "to_status": 1,
        "r1": 4.981630913911116,
        "x1": 0.7080357031006768,
        "c1": 8.12204252248064e-07,
        "tan1": 0.0,
        "r0": 0.3,
        "x0": 0.3,
        "c0": 1e-09,
        "tan0": 0.0,
        "i_n": 815.2443405315978
      },
      {
        "id": 19,
        "from_node": 8,
        "to_node": 9,
        "from_status": 1,
        "to_status": 1,
        "r1": 4.599875112488201,
        "x1": 0.089171582191514,
        "c1": 3.721928415574348e-07,
        "tan1": 0.0,
        "r0": 0.3,
        "x0": 0.3,
        "c0": 1e-09,
        "tan0": 0.0,
        "i_n": 61.1523034267917
      }
    ],
    "sym_load": [
      {
        "id": 20,
        "node": 2,
        "status": 1,
        "type": 1,
        "p_specified": -25034.197300558022,
        "q_specified": 5487.498492771063
      },
      {
        "id": 21,
        "node": 4,
        "status": 1,
        "type": 2,
        "p_specified": -57231.348816466074,
        "q_specified": -5028.604637545682
      },
      {
        "id": 22,
        "node": 6,
        "status": 1,
        "type": 0,
        "p_specified": 57293.93851084213,
        "q_specified": -6145.049967240877
      },
      {
        "id": 23,
        "node": 8,
        "status": 1,
        "type": 2,
        "p_specified": 80344.48195917299,
        "q_specified": -4996.555796479413
      },
      {
        "id": 24,
        "node": 9,
        "status": 1,
        "type": 1,
        "p_specified": -36224.20106719844,
        "q_specified": -3358.5361996124166
      }
    ]
  }
}